Version 4
SHEET 1 1060 680
WIRE 224 -16 80 -16
WIRE 320 -16 288 -16
WIRE 432 -16 432 -96
WIRE 432 -16 320 -16
WIRE 544 -16 432 -16
WIRE 848 -16 800 -16
WIRE 432 16 432 -16
WIRE 0 64 -112 64
WIRE 80 80 80 -16
WIRE 224 80 80 80
WIRE 336 80 288 80
WIRE 0 128 0 64
WIRE -112 144 -112 64
WIRE 432 160 432 80
WIRE 432 160 80 160
WIRE 672 160 672 80
WIRE 672 160 432 160
WIRE 944 160 672 160
WIRE 80 176 80 160
WIRE 432 224 432 160
WIRE 224 256 80 256
WIRE 320 256 320 -16
WIRE 320 256 288 256
WIRE 672 256 672 160
WIRE -112 288 -112 224
WIRE 0 288 0 208
WIRE 0 288 -112 288
WIRE 80 352 80 256
WIRE 224 352 80 352
WIRE 336 352 336 80
WIRE 336 352 288 352
WIRE 432 352 432 288
WIRE 432 352 336 352
WIRE 544 352 432 352
WIRE 848 352 800 352
WIRE 432 448 432 352
FLAG 944 160 0
FLAG 848 -16 +12V
IOPIN 848 -16 Out
FLAG 848 352 -12V
IOPIN 848 352 Out
FLAG 432 -96 +V
IOPIN 432 -96 Out
FLAG 432 448 -V
IOPIN 432 448 Out
FLAG -112 64 V_primary
IOPIN -112 64 In
FLAG 80 -16 V_secondary
SYMBOL ind2 -16 112 R0
SYMATTR InstName L1
SYMATTR Value 10µ
SYMATTR Type ind
SYMBOL ind2 96 176 R180
WINDOW 0 22 110 Left 2
WINDOW 3 -62 49 Left 2
SYMATTR InstName L2
SYMATTR Value 0.03µ
SYMATTR Type ind
SYMBOL ind2 96 272 R180
WINDOW 0 20 9 Left 2
WINDOW 3 -59 56 Left 2
SYMATTR InstName L3
SYMATTR Value 0.03µ
SYMATTR Type ind
SYMBOL voltage -112 128 R0
WINDOW 3 -153 94 Left 2
WINDOW 123 0 0 Left 0
WINDOW 39 -153 122 Left 2
SYMATTR Value SINE(0 325.2691193 50)
SYMATTR SpiceLine Rser=0.001
SYMATTR InstName V1
SYMBOL diode 224 0 R270
WINDOW 0 32 32 VTop 2
WINDOW 3 0 32 VBottom 2
SYMATTR InstName D1
SYMATTR Value 1N4007
SYMBOL diode 288 64 R90
WINDOW 0 0 32 VBottom 2
WINDOW 3 32 32 VTop 2
SYMATTR InstName D2
SYMATTR Value 1N4007
SYMBOL diode 224 272 R270
WINDOW 0 32 32 VTop 2
WINDOW 3 0 32 VBottom 2
SYMATTR InstName D3
SYMATTR Value 1N4007
SYMBOL diode 288 336 R90
WINDOW 0 0 32 VBottom 2
WINDOW 3 32 32 VTop 2
SYMATTR InstName D4
SYMATTR Value 1N4007
SYMBOL cap 416 16 R0
SYMATTR InstName C1
SYMATTR Value 4700µ
SYMATTR SpiceLine V=25
SYMBOL cap 416 224 R0
SYMATTR InstName C2
SYMATTR Value 4700µ
SYMATTR SpiceLine V=25
SYMBOL ZZZ\\VolReg\\LM7812 672 -16 R0
SYMATTR InstName U1
SYMBOL ZZZ\\VolReg\\LM7912 672 352 M180
SYMATTR InstName U2
TEXT -288 344 Left 2 !K. L1 L2 L3 1
TEXT -296 312 Left 2 !.tran 0.1
